power-feeders/Taxonomy_feeders/R4_2500_1_t6.glm
//Input feeder information for Taxonomy Feeders with different cases.
//Started on 10/21/09. This version created 25-Feb-2019 18:35:30.
// This version was created to perform FY11 Department of Energy
// analysis on the benefits of the SGIG grant projects.

clock {
     timezone CST+6CDT;
     starttime '2009-01-01 00:00:00';
     stoptime '2010-01-02 00:00:00';
}

#include "appliance_schedules.glm";
#include "water_and_setpoint_schedule_v5.glm";
#include "commercial_schedules.glm";
#include "daily_elasticity_schedules.glm";
//#define stylesheet=http://gridlab-d.svn.sourceforge.net/viewvc/gridlab-d/trunk/core/gridlabd-2_0
#set minimum_timestep=60;
#set profiler=1;
#set relax_naming_rules=1;

module tape;
module climate;
module residential {
     implicit_enduses NONE;
};
module powerflow {
     solver_method NR;
     NR_iteration_limit 50;
};

class player {
     double value;
};

module market;

class auction {
     double my_avg;
     double my_std;
};

object player {
     name CPP_days_R4;
     file CPP_days_R4.player;
};

object auction {
     name Market_1;
     period 900;
     special_mode BUYERS_ONLY;
     unit kW;
     my_avg 0.091528;
     my_std 0.031276;
     object player {
          file R4_2500_1_t0_TOU.player;
          loop 10;
          property current_market.clearing_price;
     };
}

object climate {
     name "TN-Nashville";
     tmyfile "TN-Nashville.tmy2";
     interpolate QUADRATIC;
};

//Configurations

object regulator_configuration {     
      name regulator_configuration_1212;     
      name feeder_reg_cfg;     
      Control OUTPUT_VOLTAGE;     
      band_center 14975.0;     
      band_width 240;     
      connect_type WYE_WYE;     
      time_delay 30;     
      raise_taps 16;     
      lower_taps 16;     
      regulation 0.10;     
      tap_pos_A 0;     
      tap_pos_B 0;     
      tap_pos_C 0;     
}       

object line_configuration {     
      name line_configuration_16;     
      conductor_B overhead_line_conductor_2;     
      conductor_N overhead_line_conductor_2;     
      spacing line_spacing_8;     
}       

object line_configuration {     
      name line_configuration_17;     
      conductor_C overhead_line_conductor_2;     
      conductor_N overhead_line_conductor_2;     
      spacing line_spacing_9;     
}       

object line_configuration {     
      name line_configuration_18;     
      conductor_A overhead_line_conductor_3;     
      conductor_B overhead_line_conductor_3;     
      conductor_C overhead_line_conductor_3;     
      conductor_N overhead_line_conductor_3;     
      spacing line_spacing_10;     
}       

object line_configuration {     
      name line_configuration_19;     
      conductor_B overhead_line_conductor_4;     
      conductor_N overhead_line_conductor_4;     
      spacing line_spacing_8;     
}       

object line_configuration {     
      name line_configuration_20;     
      conductor_A overhead_line_conductor_2;     
      conductor_N overhead_line_conductor_2;     
      spacing line_spacing_11;     
}       

object line_configuration {     
      name line_configuration_21;     
      conductor_C overhead_line_conductor_5;     
      conductor_N overhead_line_conductor_5;     
      spacing line_spacing_9;     
}       

object line_configuration {     
      name line_configuration_22;     
      conductor_C overhead_line_conductor_5;     
      conductor_N overhead_line_conductor_5;     
      spacing line_spacing_9;     
}       

object line_configuration {     
      name line_configuration_23;     
      conductor_A overhead_line_conductor_2;     
      conductor_C overhead_line_conductor_2;     
      conductor_N overhead_line_conductor_2;     
      spacing line_spacing_12;     
}       

object line_configuration {     
      name line_configuration_24;     
      conductor_C underground_line_conductor_6;     
      conductor_N underground_line_conductor_6;     
      spacing line_spacing_13;     
}       

object line_configuration {     
      name line_configuration_25;     
      conductor_C underground_line_conductor_6;     
      conductor_N underground_line_conductor_6;     
      spacing line_spacing_9;     
}       

object line_configuration {     
      name line_configuration_26;     
      conductor_A underground_line_conductor_6;     
      conductor_N underground_line_conductor_6;     
      spacing line_spacing_14;     
}       

object line_configuration {     
      name line_configuration_27;     
      conductor_A overhead_line_conductor_4;     
      conductor_N overhead_line_conductor_4;     
      spacing line_spacing_11;     
}       

object line_configuration {     
      name line_configuration_28;     
      conductor_A overhead_line_conductor_3;     
      conductor_B overhead_line_conductor_3;     
      conductor_C overhead_line_conductor_3;     
      conductor_N overhead_line_conductor_3;     
      spacing line_spacing_15;     
}       

object line_spacing {     
      name line_spacing_8;     
      distance_BN 48.0 in;    
}       

object line_spacing {     
      name line_spacing_9;     
      distance_CN 48.0 in;    
}       

object line_spacing {     
      name line_spacing_10;     
      distance_AB 57.6 in;    
      distance_BC 57.6 in;    
      distance_AC 57.6 in;    
      distance_AN 48.0 in;    
      distance_BN 48.0 in;    
      distance_CN 48.0 in;    
}       

object line_spacing {     
      name line_spacing_11;     
      distance_AN 48.0 in;    
}       

object line_spacing {     
      name line_spacing_12;     
      distance_AC 51.6 in;    
      distance_AN 48.0 in;    
      distance_CN 48.0 in;    
}       

object line_spacing {     
      name line_spacing_13;     
      distance_CN 0.0 in;    
}       

object line_spacing {     
      name line_spacing_14;     
      distance_AN 0.0 in;    
}       

object line_spacing {     
      name line_spacing_15;     
      distance_AB 48.0 in;    
      distance_BC 48.0 in;    
      distance_AC 48.0 in;    
      distance_AN 48.0 in;    
      distance_BN 48.0 in;    
      distance_CN 48.0 in;    
}       

object overhead_line_conductor {     
      name overhead_line_conductor_2;     
      //name 2 CU;    
      rating.summer.continuous 204.0;     
      geometric_mean_radius 0.00836 ft;    
      resistance 0.94500;     
}       

object overhead_line_conductor {     
      name overhead_line_conductor_3;     
      //name 336 ACSR;    
      rating.summer.continuous 530.0;     
      geometric_mean_radius 0.02300 ft;    
      resistance 0.30300;     
}       

object overhead_line_conductor {     
      name overhead_line_conductor_4;     
      //name 4 CU;    
      rating.summer.continuous 149.0;     
      geometric_mean_radius 0.00663 ft;    
      resistance 1.50000;     
}       

object overhead_line_conductor {     
      name overhead_line_conductor_5;     
      //name 123.3 AAAC;    
      rating.summer.continuous 256.0;     
      geometric_mean_radius 0.01200 ft;    
      resistance 0.16600;     
}       

object overhead_line_conductor {     
      name overhead_line_conductor_7;     
      //name 3/0 ACSR;    
      rating.summer.continuous 300.0;     
      geometric_mean_radius 0.00600 ft;    
      resistance 0.63800;     
}       

object transformer_configuration {     
      name transformer_configuration_821;     
      connect_type SINGLE_PHASE_CENTER_TAPPED;     
      install_type POLETOP;     
      primary_voltage 14376.02 V;    
      secondary_voltage 120 V;    
      power_rating 5;     
      powerA_rating 5;     
      resistance 0.015;     
      reactance 0.01;     
      shunt_impedance 297.890+286.669j;     
}       

object transformer_configuration {     
      name transformer_configuration_822;     
      connect_type SINGLE_PHASE_CENTER_TAPPED;     
      install_type POLETOP;     
      primary_voltage 14376.02 V;    
      secondary_voltage 120 V;    
      power_rating 15.0;     
      powerA_rating 15.0;     
      resistance 0.01000;     
      reactance 0.00667;     
      shunt_impedance 318.750+296.500j;     
}       

object transformer_configuration {     
      name transformer_configuration_823;     
      connect_type SINGLE_PHASE_CENTER_TAPPED;     
      install_type POLETOP;     
      primary_voltage 14376.02 V;    
      secondary_voltage 120 V;    
      power_rating 10.0;     
      powerA_rating 10.0;     
      resistance 0.015;     
      reactance 0.01;     
      shunt_impedance 308.320+317.697j;     
}       

object transformer_configuration {     
      name transformer_configuration_824;     
      connect_type SINGLE_PHASE_CENTER_TAPPED;     
      install_type POLETOP;     
      primary_voltage 14376.02 V;    
      secondary_voltage 120 V;    
      power_rating 25.0;     
      powerA_rating 25.0;     
      resistance 0.00600;     
      reactance 0.00400;     
      shunt_impedance 339.610+377.004j;     
}       

object transformer_configuration {     
      name transformer_configuration_825;     
      connect_type SINGLE_PHASE_CENTER_TAPPED;     
      install_type PADMOUNT;     
      primary_voltage 14376.02 V;    
      secondary_voltage 120 V;    
      power_rating 25.0;     
      powerA_rating 25.0;     
      resistance 0.00600;     
      reactance 0.00400;     
      shunt_impedance 339.610+324.443j;     
}       

object transformer_configuration {     
      name transformer_configuration_826;     
      connect_type SINGLE_PHASE_CENTER_TAPPED;     
      install_type PADMOUNT;     
      primary_voltage 14376.02 V;    
      secondary_voltage 120 V;    
      power_rating 15.0;     
      powerA_rating 15.0;     
      resistance 0.01000;     
      reactance 0.00667;     
      shunt_impedance 318.750+303.874j;     
}       

object transformer_configuration {     
      name transformer_configuration_827;     
      connect_type SINGLE_PHASE_CENTER_TAPPED;     
      install_type POLETOP;     
      primary_voltage 14376.02 V;    
      secondary_voltage 120 V;    
      power_rating 25.0;     
      powerB_rating 25.0;     
      resistance 0.00600;     
      reactance 0.00400;     
      shunt_impedance 339.610+290.848j;     
}       

object transformer_configuration {     
      name transformer_configuration_828;     
      connect_type SINGLE_PHASE_CENTER_TAPPED;     
      install_type POLETOP;     
      primary_voltage 14376.02 V;    
      secondary_voltage 120 V;    
      power_rating 15.0;     
      powerB_rating 15.0;     
      resistance 0.01000;     
      reactance 0.00667;     
      shunt_impedance 318.750+287.585j;     
}       

object transformer_configuration {     
      name transformer_configuration_829;     
      connect_type SINGLE_PHASE_CENTER_TAPPED;     
      install_type POLETOP;     
      primary_voltage 14376.02 V;    
      secondary_voltage 120 V;    
      power_rating 5;     
      powerB_rating 5;     
      resistance 0.015;     
      reactance 0.01;     
      shunt_impedance 297.890+315.939j;     
}       

object transformer_configuration {     
      name transformer_configuration_830;     
      connect_type SINGLE_PHASE_CENTER_TAPPED;     
      install_type POLETOP;     
      primary_voltage 14376.02 V;    
      secondary_voltage 120 V;    
      power_rating 10.0;     
      powerB_rating 10.0;     
      resistance 0.015;     
      reactance 0.01;     
      shunt_impedance 308.320+304.816j;     
}       

object transformer_configuration {     
      name transformer_configuration_831;     
      connect_type SINGLE_PHASE_CENTER_TAPPED;     
      install_type PADMOUNT;     
      primary_voltage 14376.02 V;    
      secondary_voltage 120 V;    
      power_rating 10.0;     
      powerB_rating 10.0;     
      resistance 0.015;     
      reactance 0.01;     
      shunt_impedance 308.320+331.893j;     
}       

object transformer_configuration {     
      name transformer_configuration_832;     
      connect_type SINGLE_PHASE_CENTER_TAPPED;     
      install_type PADMOUNT;     
      primary_voltage 14376.02 V;    
      secondary_voltage 120 V;    
      power_rating 15.0;     
      powerB_rating 15.0;     
      resistance 0.01000;     
      reactance 0.00667;     
      shunt_impedance 318.750+340.103j;     
}       

object transformer_configuration {     
      name transformer_configuration_833;     
      connect_type SINGLE_PHASE_CENTER_TAPPED;     
      install_type PADMOUNT;     
      primary_voltage 14376.02 V;    
      secondary_voltage 120 V;    
      power_rating 25.0;     
      powerB_rating 25.0;     
      resistance 0.00600;     
      reactance 0.00400;     
      shunt_impedance 339.610+352.372j;     
}       

object transformer_configuration {     
      name transformer_configuration_834;     
      connect_type SINGLE_PHASE_CENTER_TAPPED;     
      install_type POLETOP;     
      primary_voltage 14376.02 V;    
      secondary_voltage 120 V;    
      power_rating 15.0;     
      powerC_rating 15.0;     
      resistance 0.01000;     
      reactance 0.00667;     
      shunt_impedance 318.750+343.187j;     
}       

object transformer_configuration {     
      name transformer_configuration_835;     
      connect_type SINGLE_PHASE_CENTER_TAPPED;     
      install_type POLETOP;     
      primary_voltage 14376.02 V;    
      secondary_voltage 120 V;    
      power_rating 25.0;     
      powerC_rating 25.0;     
      resistance 0.00600;     
      reactance 0.00400;     
      shunt_impedance 339.610+391.349j;     
}       

object transformer_configuration {     
      name transformer_configuration_836;     
      connect_type SINGLE_PHASE_CENTER_TAPPED;     
      install_type POLETOP;     
      primary_voltage 14376.02 V;    
      secondary_voltage 120 V;    
      power_rating 10.0;     
      powerC_rating 10.0;     
      resistance 0.015;     
      reactance 0.01;     
      shunt_impedance 308.320+326.105j;     
}       

object transformer_configuration {     
      name transformer_configuration_837;     
      connect_type SINGLE_PHASE_CENTER_TAPPED;     
      install_type POLETOP;     
      primary_voltage 14376.02 V;    
      secondary_voltage 120 V;    
      power_rating 37.5;     
      powerC_rating 37.5;     
      resistance 0.00400;     
      reactance 0.00267;     
      shunt_impedance 365.685+381.262j;     
}       

object transformer_configuration {     
      name transformer_configuration_838;     
      connect_type SINGLE_PHASE_CENTER_TAPPED;     
      install_type POLETOP;     
      primary_voltage 14376.02 V;    
      secondary_voltage 120 V;    
      power_rating 5;     
      powerC_rating 5;     
      resistance 0.015;     
      reactance 0.01;     
      shunt_impedance 297.890+296.611j;     
}       

object transformer_configuration {     
      name transformer_configuration_979;     
      connect_type WYE_WYE;     
      install_type POLETOP;     
      primary_voltage 24900.000 V;    
      secondary_voltage 480 V;    
      power_rating 100.0;     
      powerA_rating 50.0;     
      powerC_rating 50.0;     
      resistance 0.00100;     
      reactance 0.00500;     
      shunt_impedance 496.060+434.436j;     
}       

object triplex_line_conductor {     
      name triplex_4/0 AA;    
      resistance 0.48;     
      geometric_mean_radius 0.0158;     
}       

object triplex_line_configuration {     
      name triplex_line_configuration_1;     
      conductor_1 triplex_4/0 AA;    
      conductor_2 triplex_4/0 AA;    
      conductor_N triplex_4/0 AA;    
      insulation_thickness 0.08;     
      diameter 0.522;     
}       

object underground_line_conductor {     
      name underground_line_conductor_6;     
      //name 4/0 AAC (Conc);   
      rating.summer.continuous 214.0;     
      outer_diameter 1.32;     
      conductor_gmr 0.0177 ft;    
      conductor_diameter 0.528;     
      conductor_resistance 0.433488;     
      neutral_gmr 0.0485380344339232 ft;    
      neutral_resistance 13.5696;     
      neutral_diameter 0.0641;     
      neutral_strands 11.0;     
      shield_gmr 0.00;     
      shield_resistance 0.00;     
}       

object transformer_configuration {
     name trans_config_to_feeder;
     connect_type WYE_WYE;
     install_type PADMOUNT;
     primary_voltage 230000;
     secondary_voltage 24900.000;
     power_rating 1.1 MVA;
     impedance 0.00033+0.0022j;
}

//Start actual feeder

object meter {
     name network_node;
     bustype SWING;
     nominal_voltage 230000;
     object player {
          property voltage_A;
          loop 100;
          file V_A.player;
     };
     object player {
          property voltage_B;
          loop 100;
          file V_B.player;
     };
     object player {
          property voltage_C;
          loop 100;
          file V_C.player;
     };
     phases ABCN;
}

object transformer {
     name substation_transformer;
     from network_node;
     to R4-25-00-1_node_231;
     phases ABCN;
     configuration trans_config_to_feeder;
}

        
object regulator {     
      name R4-25-00-1_reg_1;     
      from R4-25-00-1_node_231;     
      to R4-25-00-1_meter_2;     
      phases ABCN;     
      configuration feeder_reg_cfg;     
}       
object fuse {     
      name R4-25-00-1_fuse_1;     
      phases CN;     
      from R4-25-00-1_node_45;     
      to R4-25-00-1_node_94;     
      current_limit 50000;// 30;    
      status CLOSED;     
}       
object fuse {     
      name R4-25-00-1_fuse_2;     
      phases CN;     
      from R4-25-00-1_node_161;     
      to R4-25-00-1_node_96;     
      current_limit 50000;// 30;    
      status CLOSED;     
}       
object fuse {     
      name R4-25-00-1_fuse_3;     
      phases CN;     
      from R4-25-00-1_node_162;     
      to R4-25-00-1_node_77;     
      current_limit 50000;// 30;    
      status CLOSED;     
}       
object fuse {     
      name R4-25-00-1_fuse_4;     
      phases CN;     
      from R4-25-00-1_node_134;     
      to R4-25-00-1_node_78;     
      current_limit 50000;// 40;    
      status CLOSED;     
}       
object fuse {     
      name R4-25-00-1_fuse_5;     
      phases CN;     
      from R4-25-00-1_node_134;     
      to R4-25-00-1_node_79;     
      current_limit 50000;// 40;    
      status CLOSED;     
}       
object fuse {     
      name R4-25-00-1_fuse_6;     
      phases CN;     
      from R4-25-00-1_node_48;     
      to R4-25-00-1_node_80;     
      current_limit 50000;// 40;    
      status CLOSED;     
}       
object fuse {     
      name R4-25-00-1_fuse_7;     
      phases CN;     
      from R4-25-00-1_node_53;     
      to R4-25-00-1_node_81;     
      current_limit 50000;// 40;    
      status CLOSED;     
}       
object fuse {     
      name R4-25-00-1_fuse_8;     
      phases CN;     
      from R4-25-00-1_node_176;     
      to R4-25-00-1_node_82;     
      current_limit 50000;// 40;    
      status CLOSED;     
}       
object fuse {     
      name R4-25-00-1_fuse_9;     
      phases CN;     
      from R4-25-00-1_node_49;     
      to R4-25-00-1_node_83;     
      current_limit 50000;// 40;    
      status CLOSED;     
}       
object fuse {     
      name R4-25-00-1_fuse_10;     
      phases CN;     
      from R4-25-00-1_node_51;     
      to R4-25-00-1_node_84;     
      current_limit 50000;// 40;    
      status CLOSED;     
}       
object fuse {     
      name R4-25-00-1_fuse_11;     
      phases BN;     
      from R4-25-00-1_node_23;     
      to R4-25-00-1_node_85;     
      current_limit 50000;// 60;    
      status CLOSED;     
}       
object fuse {     
      name R4-25-00-1_fuse_12;     
      phases CN;     
      from R4-25-00-1_node_32;     
      to R4-25-00-1_node_86;     
      current_limit 50000;// 60;    
      status CLOSED;     
}       
object fuse {     
      name R4-25-00-1_fuse_13;     
      phases BN;     
      from R4-25-00-1_node_156;     
      to R4-25-00-1_node_87;     
      current_limit 50000;// 60;    
      status CLOSED;     
}       
object fuse {     
      name R4-25-00-1_fuse_14;     
      phases AN;     
      from R4-25-00-1_node_13;     
      to R4-25-00-1_node_102;     
      current_limit 50000;// 60;    
      status CLOSED;     
}       
object fuse {     
      name R4-25-00-1_fuse_15;     
      phases AN;     
      from R4-25-00-1_node_13;     
      to R4-25-00-1_node_88;     
      current_limit 50000;// 60;    
      status CLOSED;     
}       
object fuse {     
      name R4-25-00-1_fuse_16;     
      phases BN;     
      from R4-25-00-1_node_19;     
      to R4-25-00-1_node_89;     
      current_limit 50000;// 60;    
      status CLOSED;     
}       
object fuse {     
      name R4-25-00-1_fuse_17;     
      phases CN;     
      from R4-25-00-1_node_151;     
      to R4-25-00-1_node_90;     
      current_limit 50000;// 60;    
      status CLOSED;     
}       
object fuse {     
      name R4-25-00-1_fuse_18;     
      phases AN;     
      from R4-25-00-1_node_154;     
      to R4-25-00-1_node_91;     
      current_limit 50000;// 60;    
      status CLOSED;     
}       
object fuse {     
      name R4-25-00-1_fuse_19;     
      phases CN;     
      from R4-25-00-1_node_15;     
      to R4-25-00-1_node_92;     
      current_limit 50000;// 60;    
      status CLOSED;     
}       
object fuse {     
      name R4-25-00-1_fuse_20;     
      phases CN;     
      from R4-25-00-1_node_65;     
      to R4-25-00-1_node_93;     
      current_limit 50000;// 40;    
      status CLOSED;     
}       
object fuse {     
      name R4-25-00-1_fuse_21;     
      phases CN;     
      from R4-25-00-1_node_38;     
      to R4-25-00-1_node_97;     
      current_limit 50000;// 40;    
      status CLOSED;     
}       
object fuse {     
      name R4-25-00-1_fuse_22;     
      phases CN;     
      from R4-25-00-1_node_145;     
      to R4-25-00-1_node_98;     
      current_limit 50000;// 30;    
      status CLOSED;     
}       
object fuse {     
      name R4-25-00-1_fuse_23;     
      phases CN;     
      from R4-25-00-1_node_50;     
      to R4-25-00-1_node_99;     
      current_limit 50000;// 40;    
      status CLOSED;     
}       
object fuse {     
      name R4-25-00-1_fuse_24;     
      phases CN;     
      from R4-25-00-1_node_40;     
      to R4-25-00-1_node_100;     
      current_limit 50000;// 30;    
      status CLOSED;     
}       
object fuse {     
      name R4-25-00-1_fuse_25;     
      phases CN;     
      from R4-25-00-1_node_190;     
      to R4-25-00-1_node_101;     
      current_limit 50000;// 50;    
      status CLOSED;     
}       
object fuse {     
      name R4-25-00-1_fuse_26;     
      phases CN;     
      from R4-25-00-1_node_1;     
      to R4-25-00-1_node_95;     
      current_limit 50000;// 80;    
      status CLOSED;     
}       
object fuse {     
      name R4-25-00-1_fuse_27;     
      phases CN;     
      from R4-25-00-1_node_46;     
      to R4-25-00-1_node_103;     
      current_limit 50000;// 30;    
      status CLOSED;     
}       
object fuse {     
      name R4-25-00-1_fuse_28;     
      phases CN;     
      from R4-25-00-1_node_59;     
      to R4-25-00-1_node_76;     
      current_limit 50000;// 30;    
      status CLOSED;     
}       

object node {
      name R4-25-00-1_load_1;     
      parent R4-25-00-1_meter_1;     
      phases ACN;     
      nominal_voltage 480.00;
}

object meter {     
      name R4-25-00-1_meter_1;     
      phases ACN;     
      voltage_A 14376.02+0.0j;     
      voltage_C -7188.01+12450j;     
      nominal_voltage 480;     
}       
object meter {     
      name R4-25-00-1_meter_2;     
      phases ABCN;     
      nominal_voltage 480;     
      voltage_A 14376.02+0.0j;     
      voltage_B -7188.01-12450j;     
      voltage_C -7188.01+12450j;     
}       
object node {     
      name R4-25-00-1_node_1;     
      phases CN;     
      voltage_C -7188.01+12450j;     
      nominal_voltage 14376.02;     
}       
object node {     
      name R4-25-00-1_node_2;     
      phases ABCN;     
      voltage_A 14376.02+0.0j;     
      voltage_B -7188.01-12450j;     
      voltage_C -7188.01+12450j;     
      nominal_voltage 14376.02;     
}       
object node {     
      name R4-25-00-1_node_3;     
      phases ABCN;     
      voltage_A 14376.02+0.0j;     
      voltage_B -7188.01-12450j;     
      voltage_C -7188.01+12450j;     
      nominal_voltage 14376.02;     
}       
object node {     
      name R4-25-00-1_node_4;     
      phases BN;     
      voltage_B -7188.01-12450j;     
      nominal_voltage 14376.02;     
}       
object node {     
      name R4-25-00-1_node_5;     
      phases BN;     
      voltage_B -7188.01-12450j;     
      nominal_voltage 14376.02;     
}       
object node {     
      name R4-25-00-1_node_6;     
      phases BN;     
      voltage_B -7188.01-12450j;     
      nominal_voltage 14376.02;     
}       
object node {     
      name R4-25-00-1_node_7;     
      phases BN;     
      voltage_B -7188.01-12450j;     
      nominal_voltage 14376.02;     
}       
object node {     
      name R4-25-00-1_node_8;     
      phases BN;     
      voltage_B -7188.01-12450j;     
      nominal_voltage 14376.02;     
}       
object node {     
      name R4-25-00-1_node_9;     
      phases BN;     
      voltage_B -7188.01-12450j;     
      nominal_voltage 14376.02;     
}       
object node {     
      name R4-25-00-1_node_10;     
      phases BN;     
      voltage_B -7188.01-12450j;     
      nominal_voltage 14376.02;     
}       
object node {     
      name R4-25-00-1_node_11;     
      phases ABCN;     
      voltage_A 14376.02+0.0j;     
      voltage_B -7188.01-12450j;     
      voltage_C -7188.01+12450j;     
      nominal_voltage 14376.02;     
}       
object node {     
      name R4-25-00-1_node_12;     
      phases ABCN;     
      voltage_A 14376.02+0.0j;     
      voltage_B -7188.01-12450j;     
      voltage_C -7188.01+12450j;     
      nominal_voltage 14376.02;     
}       
object node {     
      name R4-25-00-1_node_13;     
      phases ABCN;     
      voltage_A 14376.02+0.0j;     
      voltage_B -7188.01-12450j;     
      voltage_C -7188.01+12450j;     
      nominal_voltage 14376.02;     
}       
object node {     
      name R4-25-00-1_node_14;     
      phases CN;     
      voltage_C -7188.01+12450j;     
      nominal_voltage 14376.02;     
}       
object node {     
      name R4-25-00-1_node_15;     
      phases ABCN;     
      voltage_A 14376.02+0.0j;     
      voltage_B -7188.01-12450j;     
      voltage_C -7188.01+12450j;     
      nominal_voltage 14376.02;     
}       
object node {     
      name R4-25-00-1_node_16;     
      phases CN;     
      voltage_C -7188.01+12450j;     
      nominal_voltage 14376.02;     
}       
object node {     
      name R4-25-00-1_node_17;     
      phases ABCN;     
      voltage_A 14376.02+0.0j;     
      voltage_B -7188.01-12450j;     
      voltage_C -7188.01+12450j;     
      nominal_voltage 14376.02;     
}       
object node {     
      name R4-25-00-1_node_18;     
      phases ABCN;     
      voltage_A 14376.02+0.0j;     
      voltage_B -7188.01-12450j;     
      voltage_C -7188.01+12450j;     
      nominal_voltage 14376.02;     
}       
object node {     
      name R4-25-00-1_node_19;     
      phases ABCN;     
      voltage_A 14376.02+0.0j;     
      voltage_B -7188.01-12450j;     
      voltage_C -7188.01+12450j;     
      nominal_voltage 14376.02;     
}       
object node {     
      name R4-25-00-1_node_20;     
      phases ABCN;     
      voltage_A 14376.02+0.0j;     
      voltage_B -7188.01-12450j;     
      voltage_C -7188.01+12450j;     
      nominal_voltage 14376.02;     
}       
object node {     
      name R4-25-00-1_node_21;     
      phases BN;     
      voltage_B -7188.01-12450j;     
      nominal_voltage 14376.02;     
}       
object node {     
      name R4-25-00-1_node_22;     
      phases ABCN;     
      voltage_A 14376.02+0.0j;     
      voltage_B -7188.01-12450j;     
      voltage_C -7188.01+12450j;     
      nominal_voltage 14376.02;     
}       
object node {     
      name R4-25-00-1_node_23;     
      phases ABCN;     
      voltage_A 14376.02+0.0j;     
      voltage_B -7188.01-12450j;     
      voltage_C -7188.01+12450j;     
      nominal_voltage 14376.02;     
}       
object node {     
      name R4-25-00-1_node_24;     
      phases ABCN;     
      voltage_A 14376.02+0.0j;     
      voltage_B -7188.01-12450j;     
      voltage_C -7188.01+12450j;     
      nominal_voltage 14376.02;     
}       
object node {     
      name R4-25-00-1_node_25;     
      phases CN;     
      voltage_C -7188.01+12450j;     
      nominal_voltage 14376.02;     
}       
object node {     
      name R4-25-00-1_node_26;     
      phases ABCN;     
      voltage_A 14376.02+0.0j;     
      voltage_B -7188.01-12450j;     
      voltage_C -7188.01+12450j;     
      nominal_voltage 14376.02;     
}       
object node {     
      name R4-25-00-1_node_27;     
      phases CN;     
      voltage_C -7188.01+12450j;     
      nominal_voltage 14376.02;     
}       
object node {     
      name R4-25-00-1_node_28;     
      phases CN;     
      voltage_C -7188.01+12450j;     
      nominal_voltage 14376.02;     
}       
object node {     
      name R4-25-00-1_node_29;     
      phases AN;     
      voltage_A 14376.02+0.0j;     
      nominal_voltage 14376.02;     
}       
object node {     
      name R4-25-00-1_node_30;     
      phases ABCN;     
      voltage_A 14376.02+0.0j;     
      voltage_B -7188.01-12450j;     
      voltage_C -7188.01+12450j;     
      nominal_voltage 14376.02;     
}       
object node {     
      name R4-25-00-1_node_31;     
      phases AN;     
      voltage_A 14376.02+0.0j;     
      nominal_voltage 14376.02;     
}       
object node {     
      name R4-25-00-1_node_32;     
      phases ABCN;     
      voltage_A 14376.02+0.0j;     
      voltage_B -7188.01-12450j;     
      voltage_C -7188.01+12450j;     
      nominal_voltage 14376.02;     
}       
object node {     
      name R4-25-00-1_node_33;     
      phases CN;     
      voltage_C -7188.01+12450j;     
      nominal_voltage 14376.02;     
}       
object node {     
      name R4-25-00-1_node_34;     
      phases CN;     
      voltage_C -7188.01+12450j;     
      nominal_voltage 14376.02;     
}       
object node {     
      name R4-25-00-1_node_35;     
      phases CN;     
      voltage_C -7188.01+12450j;     
      nominal_voltage 14376.02;     
}       
object node {     
      name R4-25-00-1_node_36;     
      phases CN;     
      voltage_C -7188.01+12450j;     
      nominal_voltage 14376.02;     
}       
object node {     
      name R4-25-00-1_node_37;     
      phases CN;     
      voltage_C -7188.01+12450j;     
      nominal_voltage 14376.02;     
}       
object node {     
      name R4-25-00-1_node_38;     
      phases CN;     
      voltage_C -7188.01+12450j;     
      nominal_voltage 14376.02;     
}       
object node {     
      name R4-25-00-1_node_39;     
      phases CN;     
      voltage_C -7188.01+12450j;     
      nominal_voltage 14376.02;     
}       
object node {     
      name R4-25-00-1_node_40;     
      phases CN;     
      voltage_C -7188.01+12450j;     
      nominal_voltage 14376.02;     
}       
object node {     
      name R4-25-00-1_node_41;     
      phases CN;     
      voltage_C -7188.01+12450j;     
      nominal_voltage 14376.02;     
}       
object node {     
      name R4-25-00-1_node_42;     
      phases CN;     
      voltage_C -7188.01+12450j;     
      nominal_voltage 14376.02;     
}       
object node {     
      name R4-25-00-1_node_43;     
      phases CN;     
      voltage_C -7188.01+12450j;     
      nominal_voltage 14376.02;     
}       
object node {     
      name R4-25-00-1_node_44;     
      phases CN;     
      voltage_C -7188.01+12450j;     
      nominal_voltage 14376.02;     
}       
object node {     
      name R4-25-00-1_node_45;     
      phases CN;     
      voltage_C -7188.01+12450j;     
      nominal_voltage 14376.02;     
}       
object node {     
      name R4-25-00-1_node_46;     
      phases CN;     
      voltage_C -7188.01+12450j;     
      nominal_voltage 14376.02;     
}       
object node {     
      name R4-25-00-1_node_47;     
      phases CN;     
      voltage_C -7188.01+12450j;     
      nominal_voltage 14376.02;     
}       
object node {     
      name R4-25-00-1_node_48;     
      phases CN;     
      voltage_C -7188.01+12450j;     
      nominal_voltage 14376.02;     
}       
object node {     
      name R4-25-00-1_node_49;     
      phases CN;     
      voltage_C -7188.01+12450j;     
      nominal_voltage 14376.02;     
}       
object node {     
      name R4-25-00-1_node_50;     
      phases CN;     
      voltage_C -7188.01+12450j;     
      nominal_voltage 14376.02;     
}       
object node {     
      name R4-25-00-1_node_51;     
      phases CN;     
      voltage_C -7188.01+12450j;     
      nominal_voltage 14376.02;     
}       
object node {     
      name R4-25-00-1_node_52;     
      phases CN;     
      voltage_C -7188.01+12450j;     
      nominal_voltage 14376.02;     
}       
object node {     
      name R4-25-00-1_node_53;     
      phases CN;     
      voltage_C -7188.01+12450j;     
      nominal_voltage 14376.02;     
}       
object node {     
      name R4-25-00-1_node_54;     
      phases CN;     
      voltage_C -7188.01+12450j;     
      nominal_voltage 14376.02;     
}       
object node {     
      name R4-25-00-1_node_55;     
      phases CN;     
      voltage_C -7188.01+12450j;     
      nominal_voltage 14376.02;     
}       
object node {     
      name R4-25-00-1_node_56;     
      phases CN;     
      voltage_C -7188.01+12450j;     
      nominal_voltage 14376.02;     
}       
object node {     
      name R4-25-00-1_node_57;     
      phases CN;     
      voltage_C -7188.01+12450j;     
      nominal_voltage 14376.02;     
}       
object node {     
      name R4-25-00-1_node_58;     
      phases CN;     
      voltage_C -7188.01+12450j;     
      nominal_voltage 14376.02;     
}       
object node {     
      name R4-25-00-1_node_59;     
      phases CN;     
      voltage_C -7188.01+12450j;     
      nominal_voltage 14376.02;     
}       
object node {     
      name R4-25-00-1_node_60;     
      phases CN;     
      voltage_C -7188.01+12450j;     
      nominal_voltage 14376.02;     
}       
object node {     
      name R4-25-00-1_node_61;     
      phases CN;     
      voltage_C -7188.01+12450j;     
      nominal_voltage 14376.02;     
}       
object node {     
      name R4-25-00-1_node_62;     
      phases CN;     
      voltage_C -7188.01+12450j;     
      nominal_voltage 14376.02;     
}       
object node {     
      name R4-25-00-1_node_63;     
      phases CN;     
      voltage_C -7188.01+12450j;     
      nominal_voltage 14376.02;     
}       
object node {     
      name R4-25-00-1_node_64;     
      phases CN;     
      voltage_C -7188.01+12450j;     
      nominal_voltage 14376.02;     
}       
object node {     
      name R4-25-00-1_node_65;     
      phases CN;     
      voltage_C -7188.01+12450j;     
      nominal_voltage 14376.02;     
}       
object node {     
      name R4-25-00-1_node_66;     
      phases CN;     
      voltage_C -7188.01+12450j;     
      nominal_voltage 14376.02;     
}       
object node {     
      name R4-25-00-1_node_67;     
      phases CN;     
      voltage_C -7188.01+12450j;     
      nominal_voltage 14376.02;     
}       
object node {     
      name R4-25-00-1_node_68;     
      phases CN;     
      voltage_C -7188.01+12450j;     
      nominal_voltage 14376.02;     
}       
object node {     
      name R4-25-00-1_node_69;     
      phases CN;     
      voltage_C -7188.01+12450j;     
      nominal_voltage 14376.02;     
}       
object node {     
      name R4-25-00-1_node_70;     
      phases CN;     
      voltage_C -7188.01+12450j;     
      nominal_voltage 14376.02;     
}       
object node {     
      name R4-25-00-1_node_71;     
      phases CN;     
      voltage_C -7188.01+12450j;     
      nominal_voltage 14376.02;     
}       
object node {     
      name R4-25-00-1_node_72;     
      phases ABCN;     
      voltage_A 14376.02+0.0j;     
      voltage_B -7188.01-12450j;     
      voltage_C -7188.01+12450j;     
      nominal_voltage 14376.02;     
}       
object node {     
      name R4-25-00-1_node_73;     
      phases ABCN;     
      voltage_A 14376.02+0.0j;     
      voltage_B -7188.01-12450j;     
      voltage_C -7188.01+12450j;     
      nominal_voltage 14376.02;     
}       
object node {     
      name R4-25-00-1_node_74;     
      phases ABCN;     
      voltage_A 14376.02+0.0j;     
      voltage_B -7188.01-12450j;     
      voltage_C -7188.01+12450j;     
      nominal_voltage 14376.02;     
}       
object node {     
      name R4-25-00-1_node_75;     
      phases ABCN;     
      voltage_A 14376.02+0.0j;     
      voltage_B -7188.01-12450j;     
      voltage_C -7188.01+12450j;     
      nominal_voltage 14376.02;     
}       
object node {     
      name R4-25-00-1_node_76;     
      phases CN;     
      voltage_C -7188.01+12450j;     
      nominal_voltage 14376.02;     
}       
object node {     
      name R4-25-00-1_node_77;     
      phases CN;     
      voltage_C -7188.01+12450j;     
      nominal_voltage 14376.02;     
}       
object node {     
      name R4-25-00-1_node_78;     
      phases CN;     
      voltage_C -7188.01+12450j;     
      nominal_voltage 14376.02;     
}       
object node {     
      name R4-25-00-1_node_79;     
      phases CN;     
      voltage_C -7188.01+12450j;     
      nominal_voltage 14376.02;     
}       
object node {     
      name R4-25-00-1_node_80;     
      phases CN;     
      voltage_C -7188.01+12450j;     
      nominal_voltage 14376.02;     
}       
object node {     
      name R4-25-00-1_node_81;     
      phases CN;     
      voltage_C -7188.01+12450j;     
      nominal_voltage 14376.02;     
}       
object node {     
      name R4-25-00-1_node_82;     
      phases CN;     
      voltage_C -7188.01+12450j;     
      nominal_voltage 14376.02;     
}       
object node {     
      name R4-25-00-1_node_83;     
      phases CN;     
      voltage_C -7188.01+12450j;     
      nominal_voltage 14376.02;     
}       
object node {     
      name R4-25-00-1_node_84;     
      phases CN;     
      voltage_C -7188.01+12450j;     
      nominal_voltage 14376.02;     
}       
object node {     
      name R4-25-00-1_node_85;     
      phases BN;     
      voltage_B -7188.01-12450j;     
      nominal_voltage 14376.02;     
}       
object node {     
      name R4-25-00-1_node_86;     
      phases CN;     
      voltage_C -7188.01+12450j;     
      nominal_voltage 14376.02;     
}       
object node {     
      name R4-25-00-1_node_87;     
      phases BN;     
      voltage_B -7188.01-12450j;     
      nominal_voltage 14376.02;     
}       
object node {     
      name R4-25-00-1_node_88;     
      phases AN;     
      voltage_A 14376.02+0.0j;     
      nominal_voltage 14376.02;     
}       
object node {     
      name R4-25-00-1_node_89;     
      phases BN;     
      voltage_B -7188.01-12450j;     
      nominal_voltage 14376.02;     
}       
object node {     
      name R4-25-00-1_node_90;     
      phases CN;     
      voltage_C -7188.01+12450j;     
      nominal_voltage 14376.02;     
}       
object node {     
      name R4-25-00-1_node_91;     
      phases AN;     
      voltage_A 14376.02+0.0j;     
      nominal_voltage 14376.02;     
}       
object node {     
      name R4-25-00-1_node_92;     
      phases CN;     
      voltage_C -7188.01+12450j;     
      nominal_voltage 14376.02;     
}       
object node {     
      name R4-25-00-1_node_93;     
      phases CN;     
      voltage_C -7188.01+12450j;     
      nominal_voltage 14376.02;     
}       
object node {     
      name R4-25-00-1_node_94;     
      phases CN;     
      voltage_C -7188.01+12450j;     
      nominal_voltage 14376.02;     
}       
object node {     
      name R4-25-00-1_node_95;     
      phases CN;     
      voltage_C -7188.01+12450j;     
      nominal_voltage 14376.02;     
}       
object node {     
      name R4-25-00-1_node_96;     
      phases CN;     
      voltage_C -7188.01+12450j;     
      nominal_voltage 14376.02;     
}       
object node {     
      name R4-25-00-1_node_97;     
      phases CN;     
      voltage_C -7188.01+12450j;     
      nominal_voltage 14376.02;     
}       
object node {     
      name R4-25-00-1_node_98;     
      phases CN;     
      voltage_C -7188.01+12450j;     
      nominal_voltage 14376.02;     
}       
object node {     
      name R4-25-00-1_node_99;     
      phases CN;     
      voltage_C -7188.01+12450j;     
      nominal_voltage 14376.02;     
}       
object node {     
      name R4-25-00-1_node_100;     
      phases CN;     
      voltage_C -7188.01+12450j;     
      nominal_voltage 14376.02;     
}       
object node {     
      name R4-25-00-1_node_101;     
      phases CN;     
      voltage_C -7188.01+12450j;     
      nominal_voltage 14376.02;     
}       
object node {     
      name R4-25-00-1_node_102;     
      phases AN;     
      voltage_A 14376.02+0.0j;     
      nominal_voltage 14376.02;     
}       
object node {     
      name R4-25-00-1_node_103;     
      phases CN;     
      voltage_C -7188.01+12450j;     
      nominal_voltage 14376.02;     
}       
object node {     
      name R4-25-00-1_node_104;     
      phases CN;     
      voltage_C -7188.01+12450j;     
      nominal_voltage 14376.02;     
}       
object node {     
      name R4-25-00-1_node_105;     
      phases CN;     
      voltage_C -7188.01+12450j;     
      nominal_voltage 14376.02;     
}       
object node {     
      name R4-25-00-1_node_106;     
      phases CN;     
      voltage_C -7188.01+12450j;     
      nominal_voltage 14376.02;     
}       
object node {     
      name R4-25-00-1_node_107;     
      phases BN;     
      voltage_B -7188.01-12450j;     
      nominal_voltage 14376.02;     
}       
object node {     
      name R4-25-00-1_node_108;     
      phases BN;     
      voltage_B -7188.01-12450j;     
      nominal_voltage 14376.02;     
}       
object node {     
      name R4-25-00-1_node_109;     
      phases CN;     
      voltage_C -7188.01+12450j;     
      nominal_voltage 14376.02;     
}       
object node {     
      name R4-25-00-1_node_110;     
      phases BN;     
      voltage_B -7188.01-12450j;     
      nominal_voltage 14376.02;     
}       
object node {     
      name R4-25-00-1_node_111;     
      phases AN;     
      voltage_A 14376.02+0.0j;     
      nominal_voltage 14376.02;     
}       
object node {     
      name R4-25-00-1_node_112;     
      phases BN;     
      voltage_B -7188.01-12450j;     
      nominal_voltage 14376.02;     
}       
object node {     
      name R4-25-00-1_node_113;     
      phases BN;     
      voltage_B -7188.01-12450j;     
      nominal_voltage 14376.02;     
}       
object node {     
      name R4-25-00-1_node_114;     
      phases BN;     
      voltage_B -7188.01-12450j;     
      nominal_voltage 14376.02;     
}       
object node {     
      name R4-25-00-1_node_115;     
      phases BN;     
      voltage_B -7188.01-12450j;     
      nominal_voltage 14376.02;     
}       
object node {     
      name R4-25-00-1_node_116;     
      phases BN;     
      voltage_B -7188.01-12450j;     
      nominal_voltage 14376.02;     
}       
object node {     
      name R4-25-00-1_node_117;     
      phases BN;     
      voltage_B -7188.01-12450j;     
      nominal_voltage 14376.02;     
}       
object node {     
      name R4-25-00-1_node_118;     
      phases BN;     
      voltage_B -7188.01-12450j;     
      nominal_voltage 14376.02;     
}       
object node {     
      name R4-25-00-1_node_119;     
      phases BN;     
      voltage_B -7188.01-12450j;     
      nominal_voltage 14376.02;     
}       
object node {     
      name R4-25-00-1_node_120;     
      phases BN;     
      voltage_B -7188.01-12450j;     
      nominal_voltage 14376.02;     
}       
object node {     
      name R4-25-00-1_node_121;     
      phases BN;     
      voltage_B -7188.01-12450j;     
      nominal_voltage 14376.02;     
}       
object node {     
      name R4-25-00-1_node_122;     
      phases BN;     
      voltage_B -7188.01-12450j;     
      nominal_voltage 14376.02;     
}       
object node {     
      name R4-25-00-1_node_123;     
      phases BN;     
      voltage_B -7188.01-12450j;     
      nominal_voltage 14376.02;     
}       
object node {     
      name R4-25-00-1_node_124;     
      phases BN;     
      voltage_B -7188.01-12450j;     
      nominal_voltage 14376.02;     
}       
object node {     
      name R4-25-00-1_node_125;     
      phases BN;     
      voltage_B -7188.01-12450j;     
      nominal_voltage 14376.02;     
}       
object node {     
      name R4-25-00-1_node_126;     
      phases AN;     
      voltage_A 14376.02+0.0j;     
      nominal_voltage 14376.02;     
}       
object node {     
      name R4-25-00-1_node_127;     
      phases ABCN;     
      voltage_A 14376.02+0.0j;     
      voltage_B -7188.01-12450j;     
      voltage_C -7188.01+12450j;     
      nominal_voltage 14376.02;     
}       
object node {     
      name R4-25-00-1_node_128;     
      phases BN;     
      voltage_B -7188.01-12450j;     
      nominal_voltage 14376.02;     
}       
object node {     
      name R4-25-00-1_node_129;     
      phases BN;     
      voltage_B -7188.01-12450j;     
      nominal_voltage 14376.02;     
}       
object node {     
      name R4-25-00-1_node_130;     
      phases BN;     
      voltage_B -7188.01-12450j;     
      nominal_voltage 14376.02;     
}       
object node {     
      name R4-25-00-1_node_131;     
      phases BN;     
      voltage_B -7188.01-12450j;     
      nominal_voltage 14376.02;     
}       
object node {     
      name R4-25-00-1_node_132;     
      phases CN;     
      voltage_C -7188.01+12450j;     
      nominal_voltage 14376.02;     
}       
object node {     
      name R4-25-00-1_node_133;     
      phases CN;     
      voltage_C -7188.01+12450j;     
      nominal_voltage 14376.02;     
}       
object node {     
      name R4-25-00-1_node_134;     
      phases CN;     
      voltage_C -7188.01+12450j;     
      nominal_voltage 14376.02;     
}       
object node {     
      name R4-25-00-1_node_135;     
      phases CN;     
      voltage_C -7188.01+12450j;     
      nominal_voltage 14376.02;     
}       
object node {     
      name R4-25-00-1_node_136;     
      phases CN;     
      voltage_C -7188.01+12450j;     
      nominal_voltage 14376.02;     
}       
object node {     
      name R4-25-00-1_node_137;     
      phases CN;     
      voltage_C -7188.01+12450j;     
      nominal_voltage 14376.02;     
}       
object node {     
      name R4-25-00-1_node_138;     
      phases CN;     
      voltage_C -7188.01+12450j;     
      nominal_voltage 14376.02;     
}       
object node {     
      name R4-25-00-1_node_139;     
      phases CN;     
      voltage_C -7188.01+12450j;     
      nominal_voltage 14376.02;     
}       
object node {     
      name R4-25-00-1_node_140;     
      phases CN;     
      voltage_C -7188.01+12450j;     
      nominal_voltage 14376.02;     
}       
object node {     
      name R4-25-00-1_node_141;     
      phases CN;     
      voltage_C -7188.01+12450j;     
      nominal_voltage 14376.02;     
}       
object node {     
      name R4-25-00-1_node_142;     
      phases CN;     
      voltage_C -7188.01+12450j;     
      nominal_voltage 14376.02;     
}       
object node {     
      name R4-25-00-1_node_143;     
      phases CN;     
      voltage_C -7188.01+12450j;     
      nominal_voltage 14376.02;     
}       
object node {     
      name R4-25-00-1_node_144;     
      phases CN;     
      voltage_C -7188.01+12450j;     
      nominal_voltage 14376.02;     
}       
object node {     
      name R4-25-00-1_node_145;     
      phases CN;     
      voltage_C -7188.01+12450j;     
      nominal_voltage 14376.02;     
}       
object node {     
      name R4-25-00-1_node_146;     
      phases CN;     
      voltage_C -7188.01+12450j;     
      nominal_voltage 14376.02;     
}       
object node {     
      name R4-25-00-1_node_147;     
      phases CN;     
      voltage_C -7188.01+12450j;     
      nominal_voltage 14376.02;     
}       
object node {     
      name R4-25-00-1_node_148;     
      phases CN;     
      voltage_C -7188.01+12450j;     
      nominal_voltage 14376.02;     
}       
object node {     
      name R4-25-00-1_node_149;     
      phases CN;     
      voltage_C -7188.01+12450j;     
      nominal_voltage 14376.02;     
}       
object node {     
      name R4-25-00-1_node_150;     
      phases CN;     
      voltage_C -7188.01+12450j;     
      nominal_voltage 14376.02;     
}       
object node {     
      name R4-25-00-1_node_151;     
      phases ACN;     
      voltage_A 14376.02+0.0j;     
      voltage_C -7188.01+12450j;     
      nominal_voltage 14376.02;     
}       
object node {     
      name R4-25-00-1_node_152;     
      phases BN;     
      voltage_B -7188.01-12450j;     
      nominal_voltage 14376.02;     
}       
object node {     
      name R4-25-00-1_node_153;     
      phases AN;     
      voltage_A 14376.02+0.0j;     
      nominal_voltage 14376.02;     
}       
object node {     
      name R4-25-00-1_node_154;     
      phases ABCN;     
      voltage_A 14376.02+0.0j;     
      voltage_B -7188.01-12450j;     
      voltage_C -7188.01+12450j;     
      nominal_voltage 14376.02;     
}       
object node {     
      name R4-25-00-1_node_155;     
      phases CN;     
      voltage_C -7188.01+12450j;     
      nominal_voltage 14376.02;     
}       
object node {     
      name R4-25-00-1_node_156;     
      phases ABCN;     
      voltage_A 14376.02+0.0j;     
      voltage_B -7188.01-12450j;     
      voltage_C -7188.01+12450j;     
      nominal_voltage 14376.02;     
}       
object node {     
      name R4-25-00-1_node_157;     
      phases AN;     
      voltage_A 14376.02+0.0j;     
      nominal_voltage 14376.02;     
}       
object node {     
      name R4-25-00-1_node_158;     
      phases CN;     
      voltage_C -7188.01+12450j;     
      nominal_voltage 14376.02;     
}       
object node {     
      name R4-25-00-1_node_159;     
      phases CN;     
      voltage_C -7188.01+12450j;     
      nominal_voltage 14376.02;     
}       
object node {     
      name R4-25-00-1_node_160;     
      phases CN;     
      voltage_C -7188.01+12450j;     
      nominal_voltage 14376.02;     
}       
object node {     
      name R4-25-00-1_node_161;     
      phases CN;     
      voltage_C -7188.01+12450j;     
      nominal_voltage 14376.02;     
}       
object node {     
      name R4-25-00-1_node_162;     
      phases CN;     
      voltage_C -7188.01+12450j;     
      nominal_voltage 14376.02;     
}       
object node {     
      name R4-25-00-1_node_163;     
      phases CN;     
      voltage_C -7188.01+12450j;     
      nominal_voltage 14376.02;     
}       
object node {     
      name R4-25-00-1_node_164;     
      phases CN;     
      voltage_C -7188.01+12450j;     
      nominal_voltage 14376.02;     
}       
object node {     
      name R4-25-00-1_node_165;     
      phases CN;     
      voltage_C -7188.01+12450j;     
      nominal_voltage 14376.02;     
}       
object node {     
      name R4-25-00-1_node_166;     
      phases CN;     
      voltage_C -7188.01+12450j;     
      nominal_voltage 14376.02;     
}       
object node {     
      name R4-25-00-1_node_167;     
      phases CN;     
      voltage_C -7188.01+12450j;     
      nominal_voltage 14376.02;     
}       
object node {     
      name R4-25-00-1_node_168;     
      phases CN;     
      voltage_C -7188.01+12450j;     
      nominal_voltage 14376.02;     
}       
object node {     
      name R4-25-00-1_node_169;     
      phases CN;     
      voltage_C -7188.01+12450j;     
      nominal_voltage 14376.02;     
}       
object node {     
      name R4-25-00-1_node_170;     
      phases CN;     
      voltage_C -7188.01+12450j;     
      nominal_voltage 14376.02;     
}       
object node {     
      name R4-25-00-1_node_171;     
      phases CN;     
      voltage_C -7188.01+12450j;     
      nominal_voltage 14376.02;     
}       
object node {     
      name R4-25-00-1_node_172;     
      phases CN;     
      voltage_C -7188.01+12450j;     
      nominal_voltage 14376.02;     
}       
object node {     
      name R4-25-00-1_node_173;     
      phases CN;     
      voltage_C -7188.01+12450j;     
      nominal_voltage 14376.02;     
}       
object node {     
      name R4-25-00-1_node_174;     
      phases CN;     
      voltage_C -7188.01+12450j;     
      nominal_voltage 14376.02;     
}       
object node {     
      name R4-25-00-1_node_175;     
      phases CN;     
      voltage_C -7188.01+12450j;     
      nominal_voltage 14376.02;     
}       
object node {     
      name R4-25-00-1_node_176;     
      phases CN;     
      voltage_C -7188.01+12450j;     
      nominal_voltage 14376.02;     
}       
object node {     
      name R4-25-00-1_node_177;     
      phases CN;     
      voltage_C -7188.01+12450j;     
      nominal_voltage 14376.02;     
}       
object node {     
      name R4-25-00-1_node_178;     
      phases BN;     
      voltage_B -7188.01-12450j;     
      nominal_voltage 14376.02;     
}       
object node {     
      name R4-25-00-1_node_179;     
      phases CN;     
      voltage_C -7188.01+12450j;     
      nominal_voltage 14376.02;     
}       
object node {     
      name R4-25-00-1_node_180;     
      phases CN;     
      voltage_C -7188.01+12450j;     
      nominal_voltage 14376.02;     
}       
object node {     
      name R4-25-00-1_node_181;     
      phases CN;     
      voltage_C -7188.01+12450j;     
      nominal_voltage 14376.02;     
}       
object node {     
      name R4-25-00-1_node_182;     
      phases CN;     
      voltage_C -7188.01+12450j;     
      nominal_voltage 14376.02;     
}       
object node {     
      name R4-25-00-1_node_183;     
      phases CN;     
      voltage_C -7188.01+12450j;     
      nominal_voltage 14376.02;     
}       
object node {     
      name R4-25-00-1_node_184;     
      phases CN;     
      voltage_C -7188.01+12450j;     
      nominal_voltage 14376.02;     
}       
object node {     
      name R4-25-00-1_node_185;     
      phases CN;     
      voltage_C -7188.01+12450j;     
      nominal_voltage 14376.02;     
}       
object node {     
      name R4-25-00-1_node_186;     
      phases ABCN;     
      voltage_A 14376.02+0.0j;     
      voltage_B -7188.01-12450j;     
      voltage_C -7188.01+12450j;     
      nominal_voltage 14376.02;     
}       
object node {     
      name R4-25-00-1_node_187;     
      phases ABCN;     
      voltage_A 14376.02+0.0j;     
      voltage_B -7188.01-12450j;     
      voltage_C -7188.01+12450j;     
      nominal_voltage 14376.02;     
}       
object node {     
      name R4-25-00-1_node_188;     
      phases ABCN;     
      voltage_A 14376.02+0.0j;     
      voltage_B -7188.01-12450j;     
      voltage_C -7188.01+12450j;     
      nominal_voltage 14376.02;     
}       
object node {     
      name R4-25-00-1_node_189;     
      phases ABCN;     
      voltage_A 14376.02+0.0j;     
      voltage_B -7188.01-12450j;     
      voltage_C -7188.01+12450j;     
      nominal_voltage 14376.02;     
}       
object node {     
      name R4-25-00-1_node_190;     
      phases CN;     
      voltage_C -7188.01+12450j;     
      nominal_voltage 14376.02;     
}       
object node {     
      name R4-25-00-1_node_191;     
      phases CN;     
      voltage_C -7188.01+12450j;     
      nominal_voltage 14376.02;     
}       
object node {     
      name R4-25-00-1_node_192;     
      phases CN;     
      voltage_C -7188.01+12450j;     
      nominal_voltage 14376.02;     
}       
object node {     
      name R4-25-00-1_node_193;     
      phases CN;     
      voltage_C -7188.01+12450j;     
      nominal_voltage 14376.02;     
}       
object node {     
      name R4-25-00-1_node_194;     
      phases CN;     
      voltage_C -7188.01+12450j;     
      nominal_voltage 14376.02;     
}       
object node {     
      name R4-25-00-1_node_195;     
      phases CN;     
      voltage_C -7188.01+12450j;     
      nominal_voltage 14376.02;     
}       
object node {     
      name R4-25-00-1_node_196;     
      phases CN;     
      voltage_C -7188.01+12450j;     
      nominal_voltage 14376.02;     
}       
object node {     
      name R4-25-00-1_node_197;     
      phases CN;     
      voltage_C -7188.01+12450j;     
      nominal_voltage 14376.02;     
}       
object node {     
      name R4-25-00-1_node_198;     
      phases CN;     
      voltage_C -7188.01+12450j;     
      nominal_voltage 14376.02;     
}       
object node {     
      name R4-25-00-1_node_199;     
      phases CN;     
      voltage_C -7188.01+12450j;     
      nominal_voltage 14376.02;     
}       
object node {     
      name R4-25-00-1_node_200;     
      phases CN;     
      voltage_C -7188.01+12450j;     
      nominal_voltage 14376.02;     
}       
object node {     
      name R4-25-00-1_node_201;     
      phases CN;     
      voltage_C -7188.01+12450j;     
      nominal_voltage 14376.02;     
}       
object node {     
      name R4-25-00-1_node_202;     
      phases CN;     
      voltage_C -7188.01+12450j;     
      nominal_voltage 14376.02;     
}       
object node {     
      name R4-25-00-1_node_203;     
      phases CN;     
      voltage_C -7188.01+12450j;     
      nominal_voltage 14376.02;     
}       
object node {     
      name R4-25-00-1_node_204;     
      phases CN;     
      voltage_C -7188.01+12450j;     
      nominal_voltage 14376.02;     
}       
object node {     
      name R4-25-00-1_node_205;     
      phases CN;     
      voltage_C -7188.01+12450j;     
      nominal_voltage 14376.02;     
}       
object node {     
      name R4-25-00-1_node_206;     
      phases CN;     
      voltage_C -7188.01+12450j;     
      nominal_voltage 14376.02;     
}       
object node {     
      name R4-25-00-1_node_207;     
      phases CN;     
      voltage_C -7188.01+12450j;     
      nominal_voltage 14376.02;     
}       
object node {     
      name R4-25-00-1_node_208;     
      phases CN;     
      voltage_C -7188.01+12450j;     
      nominal_voltage 14376.02;     
}       
object node {     
      name R4-25-00-1_node_209;     
      phases CN;     
      voltage_C -7188.01+12450j;     
      nominal_voltage 14376.02;     
}       
object node {     
      name R4-25-00-1_node_210;     
      phases CN;     
      voltage_C -7188.01+12450j;     
...